powerflow/autotest/test_balanced_stepdown_grY-grY_phC.glm
// $id$
//	Copyright (C) 2008 Battelle Memorial Institute

//  An example case of IEEE 4 node system using Balanced step-down grY-grY tranformer.
//  Using one phase-C line at the end node,
//  Using static load at the node 4.

/////////////////////////////////////////////
// BEGIN
/////////////////////////////////////////////

clock {
	timestamp '2000-01-01 0:00:00';
	timezone EST+5EDT;
}

#define stylesheet="C:\Documents and Settings\D3Y074\My Documents\GridLab-D\trunk\VS2005\gridlabd-2_0";
#set relax_naming_rules=1
module powerflow {
	solver_method NR;
};
module assert;

object overhead_line_conductor:100 {
	geometric_mean_radius 0.0244;
	resistance 0.306;
}

object overhead_line_conductor:101 {
	geometric_mean_radius 0.00814;
	resistance 0.592;
}

object line_spacing:200 {
	distance_AB 2.5;
	distance_BC 4.5;
	distance_AC 7.0;
	distance_AN 5.656854;
	distance_BN 4.272002;
	distance_CN 5.0;
}

object line_spacing:201 {
	distance_CN 5.0;
}

object line_configuration:300 {
	conductor_A overhead_line_conductor:100;
	conductor_B overhead_line_conductor:100;
	conductor_C overhead_line_conductor:100;
	conductor_N overhead_line_conductor:101;
	spacing line_spacing:200;
}

object line_configuration:301 {
	conductor_C overhead_line_conductor:100;
	conductor_N overhead_line_conductor:101;
	spacing line_spacing:201;
}

object transformer_configuration:400 {
	connect_type 1;
	power_rating 6000;
	powerA_rating 2000;
	powerB_rating 2000;
	powerC_rating 2000;
	primary_voltage 12470;
	secondary_voltage 4160;
	resistance 0.01;
	reactance 0.06;
}

object node:1 {
	phases "ABCN";
	bustype SWING;
	voltage_A +7199.558+0.000j;
	voltage_B -3599.779-6235.000j;
	voltage_C -3599.779+6235.000j;
	nominal_voltage 7199.558;
}

object overhead_line:12 {
	phases "ABCN";
	from node:1;
	to node:2;
	length 2000;
	configuration line_configuration:300;
}

object node:2 {
	name node2;
	phases "ABCN";
	voltage_A +7199.558+0.000j;
	voltage_B -3599.779-6235.000j;
	voltage_C -3599.779+6235.000j;
	nominal_voltage 7199.558;
	object complex_assert {
		target voltage_A;
		within 5;
		value +7253.29-0.279492d;
	};
	object complex_assert {
		target voltage_B;
		within 5;
		value +7202.49-119.443d;
	};
	object complex_assert {
		target voltage_C;
		within 5;
		value +7036.71+119.383d;
	};
}

object transformer:23 {
	phases "ABCN";
	from node:2;
	to node:3;
	configuration transformer_configuration:400;
}

object node:3 {
	phases "ABCN";
	voltage_A +2401.777+0.000j;
	voltage_B -1200.889-2080.000j;
	voltage_C -1200.889+2080.000j;
	nominal_voltage 2401.777;
	object complex_assert {
		target voltage_A;
		within 5;
		value +2419.7-0.279492d;
	};
	object complex_assert {
		target voltage_B;
		within 5;
		value +2402.76-119.443d;
	};
	object complex_assert {
		target voltage_C;
		within 5;
		value +2185.58+115.791d;
	};
}

object overhead_line:34 {
	phases "CN";
	from node:3;
	to load:4;
	length 2500;
	configuration line_configuration:301;
}

object load:4 {
	phases "CN";
	voltage_C -1200.889+2080.000j;
	constant_power_C +1800009.000+871779.789j;
	nominal_voltage 2401.777;	
	object complex_assert {
		target voltage_A;
		within 5;
		value +0+0d;
	};
	object complex_assert {
		target voltage_B;
		within 5;
		value +0+0d;
	};
	object complex_assert {
		target voltage_C;
		within 5;
		value +1629.72+104.174d;
	};
}


///////////////////////////////
// END
///////////////////////////////
